-------------------------------------------------------
          Amber 20 SANDER                              2020
          -------------------------------------------------------

  [-O]verwriting output

File Assignments:

 Here is the input file:

  &cntrl
    imin=0,
    ntx=1,
    ntwr=100,
    ntpr=10,
    ntwx=10,
    ioutfm=1,
    ntxo=1,
    nstlim=10000,
    dt=0.001,
    ntt=3,
    tempi=300.0,
    temp0=300.0,
    ig=2022,
    gamma_ln=5.0,
    ntp=0,
    ntb=0,
    cut=999.,
    ntr=1,
    restraint_wt=500.0,
    restraintmask='@5,7,9,15,17',
  &end

--------------------------------------------------------------------------------
   1.  RESOURCE   USE:
--------------------------------------------------------------------------------

 NATOM  =      22 NTYPES =       7 NBONH =      12 MBONA  =       9
 NTHETH =      25 MTHETA =      11 NPHIH =      43 MPHIA  =      24
 NHPARM =       0 NPARM  =       0 NNB   =      99 NRES   =       3
 NBONA  =       9 NTHETA =      11 NPHIA =      24 NUMBND =       8
 NUMANG =      16 NPTRA  =      19 NATYP =       7 NPHB   =       0
 IFBOX  =       0 NMXRS  =      10 IFCAP =       0 NEXTRA =       0
 NCOPY  =       0

--------------------------------------------------------------------------------
   2.  CONTROL  DATA  FOR  THE  RUN
--------------------------------------------------------------------------------

ACE

General flags:
     imin    =       0, nmropt  =       0

Nature and format of input:
     ntx     =       1, irest   =       0, ntrx    =       1

Nature and format of output:
     ntxo    =       1, ntpr    =      10, ntrx    =       1, ntwr    =     100
     iwrap   =       0, ntwx    =      10, ntwv    =       0, ntwe    =       0
     ioutfm  =       1, ntwprt  =       0, idecomp =       0, rbornstat=      0

Potential function:
     ntf     =       1, ntb     =       0, igb     =       0, nsnb    =      25
     ipol    =       0, gbsa    =       0, iesp    =       0
     dielc   =   1.00000, cut     = 999.00000, intdiel =   1.00000

Frozen or restrained atoms:
     ibelly  =       0, ntr     =       1
     restraint_wt = 500.00000

Molecular dynamics:
     nstlim  =     10000, nscm    =         0, nrespa  =         1
     t       =   0.00000, dt      =   0.00100, vlimit  =  20.00000

Langevin dynamics temperature regulation:
     ig      =    2022
     temp0   = 300.00000, tempi   = 300.00000, gamma_ln=   5.00000

    LOADING THE CONSTRAINED ATOMS AS GROUPS

   5.  REFERENCE ATOM COORDINATES

   FEN
     Mask @5,7,9,15,17; matches     5 atoms

--------------------------------------------------------------------------------
   3.  ATOMIC COORDINATES AND VELOCITIES
--------------------------------------------------------------------------------

ACE
 begin time read from input coords =    10.000 ps

 Number of triangulated 3-point waters found:        0

     Sum of charges from parm topology file =  -0.00000000
     Forcing neutrality...

--------------------------------------------------------------------------------
   4.  RESULTS
 NSTEP =        0   TIME(PS) =       0.000  TEMP(K) =   425.26  PRESS =     0.0
 Etot   =        33.8710  EKtot   =        27.8874  EPtot      =         5.9837
 BOND   =        11.2379  ANGLE   =        10.4832  DIHED      =        11.7280
 1-4 NB =         4.0623  1-4 EEL =        44.2492  VDWAALS    =         0.6648
 EELEC  =       -82.0430  EHBOND  =         0.0000  RESTRAINT  =         5.6012
 EAMBER (non-restraint)  =         0.3824
 ------------------------------------------------------------------------------

      A V E R A G E S   O V E R   10000 S T E P S

 NSTEP =    10000   TIME(PS) =      10.000  TEMP(K) =   307.88  PRESS =     0.0
 Etot   =        20.8357  EKtot   =        20.1898  EPtot      =         0.6459
 BOND   =         7.2642  ANGLE   =        11.3582  DIHED      =        12.0334
 1-4 NB =         2.8167  1-4 EEL =        43.5015  VDWAALS    =         0.6545
 EELEC  =       -80.7803  EHBOND  =         0.0000  RESTRAINT  =         3.7977
 EAMBER (non-restraint)  =        -3.1518
 ------------------------------------------------------------------------------

      R M S  F L U C T U A T I O N S

 NSTEP =    10000   TIME(PS) =      10.000  TEMP(K) =    52.29  PRESS =     0.0
 Etot   =         4.6751  EKtot   =         3.4289  EPtot      =         3.5433
 BOND   =         2.0279  ANGLE   =         2.3801  DIHED      =         1.1730
 1-4 NB =         0.5832  1-4 EEL =         1.3429  VDWAALS    =         1.0297
 EELEC  =         1.3216  EHBOND  =         0.0000  RESTRAINT  =         1.5136
 EAMBER (non-restraint)  =         2.0297
 ------------------------------------------------------------------------------
