-------------------------------------------------------
          Amber 20 SANDER                              2020
          -------------------------------------------------------

  [-O]verwriting output

File Assignments:

 Here is the input file:

  &cntrl
    imin=0,
    ntx=1,
    ntwr=100,
    ntpr=10,
    ntwx=10,
    ioutfm=1,
    ntxo=1,
    nstlim=10000,
    dt=0.001,
    ntt=3,
    tempi=300.0,
    temp0=300.0,
    ig=2022,
    gamma_ln=5.0,
    ntp=0,
    ntb=0,
    cut=999.,
    ntr=1,
    restraint_wt=500.0,
    restraintmask='@5,7,9,15,17',
  &end

--------------------------------------------------------------------------------
   1.  RESOURCE   USE:
--------------------------------------------------------------------------------

 NATOM  =      22 NTYPES =       7 NBONH =      12 MBONA  =       9
 NTHETH =      25 MTHETA =      11 NPHIH =      43 MPHIA  =      24
 NHPARM =       0 NPARM  =       0 NNB   =      99 NRES   =       3
 NBONA  =       9 NTHETA =      11 NPHIA =      24 NUMBND =       8
 NUMANG =      16 NPTRA  =      19 NATYP =       7 NPHB   =       0
 IFBOX  =       0 NMXRS  =      10 IFCAP =       0 NEXTRA =       0
 NCOPY  =       0

--------------------------------------------------------------------------------
   2.  CONTROL  DATA  FOR  THE  RUN
--------------------------------------------------------------------------------

ACE

General flags:
     imin    =       0, nmropt  =       0

Nature and format of input:
     ntx     =       1, irest   =       0, ntrx    =       1

Nature and format of output:
     ntxo    =       1, ntpr    =      10, ntrx    =       1, ntwr    =     100
     iwrap   =       0, ntwx    =      10, ntwv    =       0, ntwe    =       0
     ioutfm  =       1, ntwprt  =       0, idecomp =       0, rbornstat=      0

Potential function:
     ntf     =       1, ntb     =       0, igb     =       0, nsnb    =      25
     ipol    =       0, gbsa    =       0, iesp    =       0
     dielc   =   1.00000, cut     = 999.00000, intdiel =   1.00000

Frozen or restrained atoms:
     ibelly  =       0, ntr     =       1
     restraint_wt = 500.00000

Molecular dynamics:
     nstlim  =     10000, nscm    =         0, nrespa  =         1
     t       =   0.00000, dt      =   0.00100, vlimit  =  20.00000

Langevin dynamics temperature regulation:
     ig      =    2022
     temp0   = 300.00000, tempi   = 300.00000, gamma_ln=   5.00000

    LOADING THE CONSTRAINED ATOMS AS GROUPS

   5.  REFERENCE ATOM COORDINATES

   FEN
     Mask @5,7,9,15,17; matches     5 atoms

--------------------------------------------------------------------------------
   3.  ATOMIC COORDINATES AND VELOCITIES
--------------------------------------------------------------------------------

 FENEB restart, replica:            7
 begin time read from input coords =     0.000 ps

 Number of triangulated 3-point waters found:        0

     Sum of charges from parm topology file =  -0.00000000
     Forcing neutrality...

--------------------------------------------------------------------------------
   4.  RESULTS
 NSTEP =        0   TIME(PS) =       0.000  TEMP(K) =   425.26  PRESS =     0.0
 Etot   =       146.3322  EKtot   =        27.8874  EPtot      =       118.4448
 BOND   =        73.5976  ANGLE   =        58.2914  DIHED      =        20.0294
 1-4 NB =         3.5811  1-4 EEL =        47.8194  VDWAALS    =        -0.0431
 EELEC  =       -84.8310  EHBOND  =         0.0000  RESTRAINT  =         0.0000
 ------------------------------------------------------------------------------

      A V E R A G E S   O V E R   10000 S T E P S

 NSTEP =    10000   TIME(PS) =      10.000  TEMP(K) =   329.79  PRESS =     0.0
 Etot   =        35.4382  EKtot   =        21.6271  EPtot      =        13.8112
 BOND   =         8.1871  ANGLE   =        19.8934  DIHED      =        11.7782
 1-4 NB =         3.0803  1-4 EEL =        41.4767  VDWAALS    =         1.2904
 EELEC  =       -79.4810  EHBOND  =         0.0000  RESTRAINT  =         7.5860
 EAMBER (non-restraint)  =         6.2252
 ------------------------------------------------------------------------------

      R M S  F L U C T U A T I O N S

 NSTEP =    10000   TIME(PS) =      10.000  TEMP(K) =    97.79  PRESS =     0.0
 Etot   =        11.8753  EKtot   =         6.4128  EPtot      =         6.8364
 BOND   =         3.4477  ANGLE   =         3.3442  DIHED      =         1.0909
 1-4 NB =         0.6584  1-4 EEL =         1.3564  VDWAALS    =         1.1836
 EELEC  =         1.2997  EHBOND  =         0.0000  RESTRAINT  =         2.8204
 EAMBER (non-restraint)  =         4.0159
 ------------------------------------------------------------------------------
