-------------------------------------------------------
          Amber 20 SANDER                              2020
          -------------------------------------------------------

  [-O]verwriting output

File Assignments:

 Here is the input file:

  &cntrl
    imin=0,
    ntx=1,
    ntwr=100,
    ntpr=10,
    ntwx=10,
    ioutfm=1,
    ntxo=1,
    nstlim=10000,
    dt=0.001,
    ntt=3,
    tempi=300.0,
    temp0=300.0,
    ig=2022,
    gamma_ln=5.0,
    ntp=0,
    ntb=0,
    cut=999.,
    ntr=1,
    restraint_wt=500.0,
    restraintmask='@5,7,9,15,17',
  &end

--------------------------------------------------------------------------------
   1.  RESOURCE   USE:
--------------------------------------------------------------------------------

 NATOM  =      22 NTYPES =       7 NBONH =      12 MBONA  =       9
 NTHETH =      25 MTHETA =      11 NPHIH =      43 MPHIA  =      24
 NHPARM =       0 NPARM  =       0 NNB   =      99 NRES   =       3
 NBONA  =       9 NTHETA =      11 NPHIA =      24 NUMBND =       8
 NUMANG =      16 NPTRA  =      19 NATYP =       7 NPHB   =       0
 IFBOX  =       0 NMXRS  =      10 IFCAP =       0 NEXTRA =       0
 NCOPY  =       0

--------------------------------------------------------------------------------
   2.  CONTROL  DATA  FOR  THE  RUN
--------------------------------------------------------------------------------

ACE

General flags:
     imin    =       0, nmropt  =       0

Nature and format of input:
     ntx     =       1, irest   =       0, ntrx    =       1

Nature and format of output:
     ntxo    =       1, ntpr    =      10, ntrx    =       1, ntwr    =     100
     iwrap   =       0, ntwx    =      10, ntwv    =       0, ntwe    =       0
     ioutfm  =       1, ntwprt  =       0, idecomp =       0, rbornstat=      0

Potential function:
     ntf     =       1, ntb     =       0, igb     =       0, nsnb    =      25
     ipol    =       0, gbsa    =       0, iesp    =       0
     dielc   =   1.00000, cut     = 999.00000, intdiel =   1.00000

Frozen or restrained atoms:
     ibelly  =       0, ntr     =       1
     restraint_wt = 500.00000

Molecular dynamics:
     nstlim  =     10000, nscm    =         0, nrespa  =         1
     t       =   0.00000, dt      =   0.00100, vlimit  =  20.00000

Langevin dynamics temperature regulation:
     ig      =    2022
     temp0   = 300.00000, tempi   = 300.00000, gamma_ln=   5.00000

    LOADING THE CONSTRAINED ATOMS AS GROUPS

   5.  REFERENCE ATOM COORDINATES

   FEN
     Mask @5,7,9,15,17; matches     5 atoms

--------------------------------------------------------------------------------
   3.  ATOMIC COORDINATES AND VELOCITIES
--------------------------------------------------------------------------------

ACE
 begin time read from input coords =    10.000 ps

 Number of triangulated 3-point waters found:        0

     Sum of charges from parm topology file =  -0.00000000
     Forcing neutrality...

--------------------------------------------------------------------------------
   4.  RESULTS
 NSTEP =        0   TIME(PS) =       0.000  TEMP(K) =   425.26  PRESS =     0.0
 Etot   =        29.6859  EKtot   =        27.8874  EPtot      =         1.7986
 BOND   =         6.4756  ANGLE   =        13.8943  DIHED      =        11.2298
 1-4 NB =         3.0507  1-4 EEL =        44.4370  VDWAALS    =        -0.4760
 EELEC  =       -80.3014  EHBOND  =         0.0000  RESTRAINT  =         3.4886
 EAMBER (non-restraint)  =        -1.6901
 ------------------------------------------------------------------------------

      A V E R A G E S   O V E R   10000 S T E P S

 NSTEP =    10000   TIME(PS) =      10.000  TEMP(K) =   317.23  PRESS =     0.0
 Etot   =        22.0780  EKtot   =        20.8032  EPtot      =         1.2748
 BOND   =         7.5204  ANGLE   =        12.3988  DIHED      =        11.7654
 1-4 NB =         2.4180  1-4 EEL =        41.8818  VDWAALS    =         0.5014
 EELEC  =       -78.8145  EHBOND  =         0.0000  RESTRAINT  =         3.6035
 EAMBER (non-restraint)  =        -2.3287
 ------------------------------------------------------------------------------

      R M S  F L U C T U A T I O N S

 NSTEP =    10000   TIME(PS) =      10.000  TEMP(K) =    54.03  PRESS =     0.0
 Etot   =         4.8175  EKtot   =         3.5434  EPtot      =         3.5702
 BOND   =         2.2771  ANGLE   =         2.3690  DIHED      =         1.0860
 1-4 NB =         0.5683  1-4 EEL =         1.3514  VDWAALS    =         1.0868
 EELEC  =         1.2020  EHBOND  =         0.0000  RESTRAINT  =         1.3878
 EAMBER (non-restraint)  =         2.1824
 ------------------------------------------------------------------------------
